<?xml version="1.0" encoding="UTF-8"?>

<!-- generated on Thu Aug 20 10:58:08 2015 by SUMO netconvert Version 0.19.0
<?xml version="1.0" encoding="UTF-8"?>

<configuration xmlns:xsi="http://www.w3.org/2001/XMLSchema-instance" xsi:noNamespaceSchemaLocation="http://sumo-sim.org/xsd/netconvertConfiguration.xsd">

    <input>
        <node-files value="hello.nod.xml"/>
        <edge-files value="hello.edg.xml"/>
        <type-files value="hello.typ.xml"/>
    </input>

    <output>
        <output-file value="hello.net.xml"/>
    </output>

</configuration>
-->

<net version="0.13" xmlns:xsi="http://www.w3.org/2001/XMLSchema-instance" xsi:noNamespaceSchemaLocation="http://sumo-sim.org/xsd/net_file.xsd">

    <location netOffset="250.00,250.00" convBoundary="0.00,0.00,500.00,500.00" origBoundary="-250.00,-250.00,250.00,250.00" projParameter="!"/>

    <edge id=":1_0" function="internal">
        <lane id=":1_0_0" index="0" speed="13.90" length="5.00" shape="248.35,254.75 248.16,253.39 247.57,252.43 246.61,251.84 245.25,251.65"/>
    </edge>
    <edge id=":1_1" function="internal">
        <lane id=":1_1_0" index="0" speed="13.90" length="9.50" shape="248.35,254.75 248.35,245.25"/>
    </edge>
    <edge id=":1_2" function="internal">
        <lane id=":1_2_0" index="0" speed="13.90" length="3.18" shape="248.35,254.75 248.75,251.95 248.93,251.65"/>
    </edge>
    <edge id=":1_3" function="internal">
        <lane id=":1_3_0" index="0" speed="13.90" length="2.41" shape="248.35,254.75 249.18,253.51 250.00,253.10"/>
    </edge>
    <edge id=":1_16" function="internal">
        <lane id=":1_16_0" index="0" speed="13.90" length="7.14" shape="248.93,251.65 249.95,249.95 251.95,248.75 254.75,248.35"/>
    </edge>
    <edge id=":1_17" function="internal">
        <lane id=":1_17_0" index="0" speed="13.90" length="2.41" shape="250.00,253.10 250.82,253.51 251.65,254.75"/>
    </edge>
    <edge id=":1_4" function="internal">
        <lane id=":1_4_0" index="0" speed="13.90" length="5.00" shape="254.75,251.65 253.39,251.84 252.43,252.43 251.84,253.39 251.65,254.75"/>
    </edge>
    <edge id=":1_5" function="internal">
        <lane id=":1_5_0" index="0" speed="13.90" length="9.50" shape="254.75,251.65 245.25,251.65"/>
    </edge>
    <edge id=":1_6" function="internal">
        <lane id=":1_6_0" index="0" speed="13.90" length="3.18" shape="254.75,251.65 251.95,251.25 251.65,251.07"/>
    </edge>
    <edge id=":1_7" function="internal">
        <lane id=":1_7_0" index="0" speed="13.90" length="2.41" shape="254.75,251.65 253.51,250.82 253.10,250.00"/>
    </edge>
    <edge id=":1_18" function="internal">
        <lane id=":1_18_0" index="0" speed="13.90" length="7.14" shape="251.65,251.07 249.95,250.05 248.75,248.05 248.35,245.25"/>
    </edge>
    <edge id=":1_19" function="internal">
        <lane id=":1_19_0" index="0" speed="13.90" length="2.41" shape="253.10,250.00 253.51,249.18 254.75,248.35"/>
    </edge>
    <edge id=":1_8" function="internal">
        <lane id=":1_8_0" index="0" speed="13.90" length="5.00" shape="251.65,245.25 251.84,246.61 252.43,247.57 253.39,248.16 254.75,248.35"/>
    </edge>
    <edge id=":1_9" function="internal">
        <lane id=":1_9_0" index="0" speed="13.90" length="9.50" shape="251.65,245.25 251.65,254.75"/>
    </edge>
    <edge id=":1_10" function="internal">
        <lane id=":1_10_0" index="0" speed="13.90" length="3.18" shape="251.65,245.25 251.25,248.05 251.07,248.35"/>
    </edge>
    <edge id=":1_11" function="internal">
        <lane id=":1_11_0" index="0" speed="13.90" length="2.41" shape="251.65,245.25 250.82,246.49 250.00,246.90"/>
    </edge>
    <edge id=":1_20" function="internal">
        <lane id=":1_20_0" index="0" speed="13.90" length="7.14" shape="251.07,248.35 250.05,250.05 248.05,251.25 245.25,251.65"/>
    </edge>
    <edge id=":1_21" function="internal">
        <lane id=":1_21_0" index="0" speed="13.90" length="2.41" shape="250.00,246.90 249.18,246.49 248.35,245.25"/>
    </edge>
    <edge id=":1_12" function="internal">
        <lane id=":1_12_0" index="0" speed="13.90" length="5.00" shape="245.25,248.35 246.61,248.16 247.57,247.57 248.16,246.61 248.35,245.25"/>
    </edge>
    <edge id=":1_13" function="internal">
        <lane id=":1_13_0" index="0" speed="13.90" length="9.50" shape="245.25,248.35 254.75,248.35"/>
    </edge>
    <edge id=":1_14" function="internal">
        <lane id=":1_14_0" index="0" speed="13.90" length="3.18" shape="245.25,248.35 248.05,248.75 248.35,248.93"/>
    </edge>
    <edge id=":1_15" function="internal">
        <lane id=":1_15_0" index="0" speed="13.90" length="2.41" shape="245.25,248.35 246.49,249.18 246.90,250.00"/>
    </edge>
    <edge id=":1_22" function="internal">
        <lane id=":1_22_0" index="0" speed="13.90" length="7.14" shape="248.35,248.93 250.05,249.95 251.25,251.95 251.65,254.75"/>
    </edge>
    <edge id=":1_23" function="internal">
        <lane id=":1_23_0" index="0" speed="13.90" length="2.41" shape="246.90,250.00 246.49,250.82 245.25,251.65"/>
    </edge>
    <edge id=":2_0" function="internal">
        <lane id=":2_0_0" index="0" speed="13.90" length="4.82" shape="500.00,248.35 501.24,249.18 501.65,250.00 501.24,250.82 500.00,251.65"/>
    </edge>
    <edge id=":3_0" function="internal">
        <lane id=":3_0_0" index="0" speed="13.90" length="4.82" shape="0.00,251.65 -1.24,250.82 -1.65,250.00 -1.24,249.18 0.00,248.35"/>
    </edge>
    <edge id=":4_0" function="internal">
        <lane id=":4_0_0" index="0" speed="13.90" length="4.82" shape="251.65,500.00 250.82,501.24 250.00,501.65 249.18,501.24 248.35,500.00"/>
    </edge>
    <edge id=":5_0" function="internal">
        <lane id=":5_0_0" index="0" speed="13.90" length="4.82" shape="248.35,0.00 249.18,-1.24 250.00,-1.65 250.82,-1.24 251.65,0.00"/>
    </edge>

    <edge id="1to2" from="1" to="2" priority="6" type="a">
        <lane id="1to2_0" index="0" speed="13.90" length="245.25" shape="254.75,248.35 500.00,248.35"/>
    </edge>
    <edge id="1to3" from="1" to="3" priority="6" type="a">
        <lane id="1to3_0" index="0" speed="13.90" length="245.25" shape="245.25,251.65 0.00,251.65"/>
    </edge>
    <edge id="1to4" from="1" to="4" priority="6" type="a">
        <lane id="1to4_0" index="0" speed="13.90" length="245.25" shape="251.65,254.75 251.65,500.00"/>
    </edge>
    <edge id="1to5" from="1" to="5" priority="6" type="a">
        <lane id="1to5_0" index="0" speed="13.90" length="245.25" shape="248.35,245.25 248.35,0.00"/>
    </edge>
    <edge id="2to1" from="2" to="1" priority="6" type="a">
        <lane id="2to1_0" index="0" speed="13.90" length="245.25" shape="500.00,251.65 254.75,251.65"/>
    </edge>
    <edge id="3to1" from="3" to="1" priority="6" type="a">
        <lane id="3to1_0" index="0" speed="13.90" length="245.25" shape="0.00,248.35 245.25,248.35"/>
    </edge>
    <edge id="4to1" from="4" to="1" priority="6" type="a">
        <lane id="4to1_0" index="0" speed="13.90" length="245.25" shape="248.35,500.00 248.35,254.75"/>
    </edge>
    <edge id="5to1" from="5" to="1" priority="6" type="a">
        <lane id="5to1_0" index="0" speed="13.90" length="245.25" shape="251.65,0.00 251.65,245.25"/>
    </edge>

    <tlLogic id="1" type="static" programID="0" offset="0">
        <phase duration="31" state="GGggrrrrGGggrrrr"/>
        <phase duration="4" state="yyggrrrryyggrrrr"/>
        <phase duration="6" state="rrGGrrrrrrGGrrrr"/>
        <phase duration="4" state="rryyrrrrrryyrrrr"/>
        <phase duration="31" state="rrrrGGggrrrrGGgg"/>
        <phase duration="4" state="rrrryyggrrrryygg"/>
        <phase duration="6" state="rrrrrrGGrrrrrrGG"/>
        <phase duration="4" state="rrrrrryyrrrrrryy"/>
    </tlLogic>

    <junction id="1" type="traffic_light" x="250.00" y="250.00" incLanes="4to1_0 2to1_0 5to1_0 3to1_0" intLanes=":1_0_0 :1_1_0 :1_16_0 :1_17_0 :1_4_0 :1_5_0 :1_18_0 :1_19_0 :1_8_0 :1_9_0 :1_20_0 :1_21_0 :1_12_0 :1_13_0 :1_22_0 :1_23_0" shape="246.75,254.75 253.25,254.75 254.75,253.25 254.75,246.75 253.25,245.25 246.75,245.25 245.25,246.75 245.25,253.25">
        <request index="0" response="0000000000000000" foes="1000010000100000" cont="0"/>
        <request index="1" response="0000000000000000" foes="0111110001100000" cont="0"/>
        <request index="2" response="0000001100000000" foes="0110001111100000" cont="1"/>
        <request index="3" response="0100001000010000" foes="0100001000010000" cont="1"/>
        <request index="4" response="0000001000000000" foes="0100001000001000" cont="0"/>
        <request index="5" response="0000011000000111" foes="1100011000000111" cont="0"/>
        <request index="6" response="0011011000000110" foes="0011111000000110" cont="1"/>
        <request index="7" response="0010000100000100" foes="0010000100000100" cont="1"/>
        <request index="8" response="0000000000000000" foes="0010000010000100" cont="0"/>
        <request index="9" response="0000000000000000" foes="0110000001111100" cont="0"/>
        <request index="10" response="0000000000000011" foes="1110000001100011" cont="1"/>
        <request index="11" response="0001000001000010" foes="0001000001000010" cont="1"/>
        <request index="12" response="0000000000000010" foes="0000100001000010" cont="0"/>
        <request index="13" response="0000011100000110" foes="0000011111000110" cont="0"/>
        <request index="14" response="0000011000110110" foes="0000011000111110" cont="1"/>
        <request index="15" response="0000010000100001" foes="0000010000100001" cont="1"/>
    </junction>
    <junction id="2" type="priority" x="500.00" y="250.00" incLanes="1to2_0" intLanes=":2_0_0" shape="500.00,250.05 500.00,253.25 500.00,246.75 500.00,249.95">
        <request index="0" response="0" foes="0" cont="0"/>
    </junction>
    <junction id="3" type="priority" x="0.00" y="250.00" incLanes="1to3_0" intLanes=":3_0_0" shape="-0.00,249.95 -0.00,246.75 0.00,253.25 0.00,250.05">
        <request index="0" response="0" foes="0" cont="0"/>
    </junction>
    <junction id="4" type="priority" x="250.00" y="500.00" incLanes="1to4_0" intLanes=":4_0_0" shape="249.95,500.00 246.75,500.00 253.25,500.00 250.05,500.00">
        <request index="0" response="0" foes="0" cont="0"/>
    </junction>
    <junction id="5" type="priority" x="250.00" y="0.00" incLanes="1to5_0" intLanes=":5_0_0" shape="250.05,-0.00 253.25,-0.00 246.75,0.00 249.95,0.00">
        <request index="0" response="0" foes="0" cont="0"/>
    </junction>

    <junction id=":1_16_0" type="internal" x="248.93" y="251.65" incLanes=":1_2_0 5to1_0" intLanes=":1_5_0 :1_6_0 :1_7_0 :1_8_0 :1_9_0 :1_13_0 :1_14_0"/>
    <junction id=":1_17_0" type="internal" x="250.00" y="253.10" incLanes=":1_3_0 2to1_0 3to1_0 5to1_0" intLanes=":1_4_0 :1_9_0 :1_14_0"/>
    <junction id=":1_18_0" type="internal" x="251.65" y="251.07" incLanes=":1_6_0 3to1_0 4to1_0 5to1_0" intLanes=":1_1_0 :1_2_0 :1_9_0 :1_10_0 :1_11_0 :1_12_0 :1_13_0"/>
    <junction id=":1_19_0" type="internal" x="253.10" y="250.00" incLanes=":1_7_0 3to1_0 4to1_0 5to1_0" intLanes=":1_2_0 :1_8_0 :1_13_0"/>
    <junction id=":1_20_0" type="internal" x="251.07" y="248.35" incLanes=":1_10_0 4to1_0" intLanes=":1_0_0 :1_1_0 :1_5_0 :1_6_0 :1_13_0 :1_14_0 :1_15_0"/>
    <junction id=":1_21_0" type="internal" x="250.00" y="246.90" incLanes=":1_11_0 2to1_0 3to1_0 4to1_0" intLanes=":1_1_0 :1_6_0 :1_12_0"/>
    <junction id=":1_22_0" type="internal" x="248.35" y="248.93" incLanes=":1_14_0 2to1_0 4to1_0 5to1_0" intLanes=":1_1_0 :1_2_0 :1_3_0 :1_4_0 :1_5_0 :1_9_0 :1_10_0"/>
    <junction id=":1_23_0" type="internal" x="246.90" y="250.00" incLanes=":1_15_0 2to1_0 4to1_0 5to1_0" intLanes=":1_0_0 :1_5_0 :1_10_0"/>

    <connection from="1to2" to="2to1" fromLane="0" toLane="0" via=":2_0_0" dir="t" state="M"/>
    <connection from="1to3" to="3to1" fromLane="0" toLane="0" via=":3_0_0" dir="t" state="M"/>
    <connection from="1to4" to="4to1" fromLane="0" toLane="0" via=":4_0_0" dir="t" state="M"/>
    <connection from="1to5" to="5to1" fromLane="0" toLane="0" via=":5_0_0" dir="t" state="M"/>
    <connection from="2to1" to="1to4" fromLane="0" toLane="0" via=":1_4_0" tl="1" linkIndex="4" dir="r" state="o"/>
    <connection from="2to1" to="1to3" fromLane="0" toLane="0" via=":1_5_0" tl="1" linkIndex="5" dir="s" state="o"/>
    <connection from="2to1" to="1to5" fromLane="0" toLane="0" via=":1_6_0" tl="1" linkIndex="6" dir="l" state="o"/>
    <connection from="2to1" to="1to2" fromLane="0" toLane="0" via=":1_7_0" tl="1" linkIndex="7" dir="t" state="o"/>
    <connection from="3to1" to="1to5" fromLane="0" toLane="0" via=":1_12_0" tl="1" linkIndex="12" dir="r" state="o"/>
    <connection from="3to1" to="1to2" fromLane="0" toLane="0" via=":1_13_0" tl="1" linkIndex="13" dir="s" state="o"/>
    <connection from="3to1" to="1to4" fromLane="0" toLane="0" via=":1_14_0" tl="1" linkIndex="14" dir="l" state="o"/>
    <connection from="3to1" to="1to3" fromLane="0" toLane="0" via=":1_15_0" tl="1" linkIndex="15" dir="t" state="o"/>
    <connection from="4to1" to="1to3" fromLane="0" toLane="0" via=":1_0_0" tl="1" linkIndex="0" dir="r" state="o"/>
    <connection from="4to1" to="1to5" fromLane="0" toLane="0" via=":1_1_0" tl="1" linkIndex="1" dir="s" state="o"/>
    <connection from="4to1" to="1to2" fromLane="0" toLane="0" via=":1_2_0" tl="1" linkIndex="2" dir="l" state="o"/>
    <connection from="4to1" to="1to4" fromLane="0" toLane="0" via=":1_3_0" tl="1" linkIndex="3" dir="t" state="o"/>
    <connection from="5to1" to="1to2" fromLane="0" toLane="0" via=":1_8_0" tl="1" linkIndex="8" dir="r" state="o"/>
    <connection from="5to1" to="1to4" fromLane="0" toLane="0" via=":1_9_0" tl="1" linkIndex="9" dir="s" state="o"/>
    <connection from="5to1" to="1to3" fromLane="0" toLane="0" via=":1_10_0" tl="1" linkIndex="10" dir="l" state="o"/>
    <connection from="5to1" to="1to5" fromLane="0" toLane="0" via=":1_11_0" tl="1" linkIndex="11" dir="t" state="o"/>

    <connection from=":1_0" to="1to3" fromLane="0" toLane="0" dir="s" state="M"/>
    <connection from=":1_1" to="1to5" fromLane="0" toLane="0" dir="s" state="M"/>
    <connection from=":1_2" to="1to2" fromLane="0" toLane="0" via=":1_16_0" dir="s" state="M"/>
    <connection from=":1_16" to="1to2" fromLane="0" toLane="0" dir="s" state="M"/>
    <connection from=":1_3" to="1to4" fromLane="0" toLane="0" via=":1_17_0" dir="s" state="M"/>
    <connection from=":1_17" to="1to4" fromLane="0" toLane="0" dir="s" state="M"/>
    <connection from=":1_4" to="1to4" fromLane="0" toLane="0" dir="s" state="M"/>
    <connection from=":1_5" to="1to3" fromLane="0" toLane="0" dir="s" state="M"/>
    <connection from=":1_6" to="1to5" fromLane="0" toLane="0" via=":1_18_0" dir="s" state="M"/>
    <connection from=":1_18" to="1to5" fromLane="0" toLane="0" dir="s" state="M"/>
    <connection from=":1_7" to="1to2" fromLane="0" toLane="0" via=":1_19_0" dir="s" state="M"/>
    <connection from=":1_19" to="1to2" fromLane="0" toLane="0" dir="s" state="M"/>
    <connection from=":1_8" to="1to2" fromLane="0" toLane="0" dir="s" state="M"/>
    <connection from=":1_9" to="1to4" fromLane="0" toLane="0" dir="s" state="M"/>
    <connection from=":1_10" to="1to3" fromLane="0" toLane="0" via=":1_20_0" dir="s" state="M"/>
    <connection from=":1_20" to="1to3" fromLane="0" toLane="0" dir="s" state="M"/>
    <connection from=":1_11" to="1to5" fromLane="0" toLane="0" via=":1_21_0" dir="s" state="M"/>
    <connection from=":1_21" to="1to5" fromLane="0" toLane="0" dir="s" state="M"/>
    <connection from=":1_12" to="1to5" fromLane="0" toLane="0" dir="s" state="M"/>
    <connection from=":1_13" to="1to2" fromLane="0" toLane="0" dir="s" state="M"/>
    <connection from=":1_14" to="1to4" fromLane="0" toLane="0" via=":1_22_0" dir="s" state="M"/>
    <connection from=":1_22" to="1to4" fromLane="0" toLane="0" dir="s" state="M"/>
    <connection from=":1_15" to="1to3" fromLane="0" toLane="0" via=":1_23_0" dir="s" state="M"/>
    <connection from=":1_23" to="1to3" fromLane="0" toLane="0" dir="s" state="M"/>
    <connection from=":2_0" to="2to1" fromLane="0" toLane="0" dir="s" state="M"/>
    <connection from=":3_0" to="3to1" fromLane="0" toLane="0" dir="s" state="M"/>
    <connection from=":4_0" to="4to1" fromLane="0" toLane="0" dir="s" state="M"/>
    <connection from=":5_0" to="5to1" fromLane="0" toLane="0" dir="s" state="M"/>

</net>
