<connections>
	<connection from="4to1" to="1to4" fromLane="0" via="4to1_0" toLane="0" dir="r" t1="1" linkIndex="5" />
</connections>