<edges>

	<edge  from="5" id="5to1" to="1" type="a" />
	<edge  from="3" id="3to1" to="1" type="a" />
	<edge  from="2" id="2to1" to="1" type="a" />
	<edge  from="4" id="4to1" to="1" type="a" />

	
	<edge  from="1" id="1to5" to="5" type="a" />
	<edge  from="1" id="1to3" to="3" type="a" />
	<edge  from="1" id="1to2" to="2" type="a" />
	<edge  from="1" id="1to4" to="4" type="a" />

</edges>